
#======================================================================
# CRYSTAL DATA
#----------------------------------------------------------------------
data_VESTA_phase_1

_chemical_name_common                  '0'
_cell_length_a                         2.952588
_cell_length_b                         2.952588
_cell_length_c                         2.952588
_cell_angle_alpha                      89.999992
_cell_angle_beta                       89.999992
_cell_angle_gamma                      89.999992
_cell_volume                           25.740003
_space_group_name_H-M_alt              'P 1'
_space_group_IT_number                 1

loop_
_space_group_symop_operation_xyz
   'x, y, z'
   'x+1/2, y+1/2, z+1/2'

loop_
   _atom_site_label
   _atom_site_occupancy
   _atom_site_fract_x
   _atom_site_fract_y
   _atom_site_fract_z
   _atom_site_adp_type
   _atom_site_U_iso_or_equiv
   _atom_site_type_symbol
   V1         1.0     0.000000     0.000000     0.000000    Uiso  ? V
