
##########################################################################
#               Crystallographic Information Format file
#               Produced by PyCifRW module
#
#  This is a CIF file.  CIF has been adopted by the International
#  Union of Crystallography as the standard for data archiving and
#  transmission.
#
#  For information on this file format, follow the CIF links at
#  http://www.iucr.org
##########################################################################

data_0

loop_
  _atom_site_label
  _atom_site_fract_x
  _atom_site_fract_y
  _atom_site_fract_z
  _atom_site_type_symbol
         Ir1       0.5000000000000088  0.5000000000000088  0.0       Ir        
         Ir2       0.5000000000000088  0.0       0.5000000000000088  Ir        
         Ir3       0.0       0.5000000000000088  0.5000000000000088  Ir        
         Ir4       0.0       0.0       0.0       Ir        
         S1        0.13175090908773657           0.8682490909122793  0.3682490909122705 S        
         S2        0.8682490909122793  0.3682490909122705  0.13175090908773657           S        
         S3        0.3682490909122705  0.13175090908773657           0.8682490909122793 S        
         S4        0.6317509090877471  0.6317509090877471  0.6317509090877471  S        
         S5        0.8682490909122793  0.13175090908773657           0.6317509090877471 S        
         S6        0.13175090908773657           0.6317509090877471  0.8682490909122793 S        
         S7        0.6317509090877471  0.8682490909122793  0.13175090908773657           S        
         S8        0.3682490909122705  0.3682490909122705  0.3682490909122705  S
_cell_angle_alpha                       90.0
_cell_angle_beta                        90.0
_cell_angle_gamma                       90.0
_cell_length_a                          5.6698286942175
_cell_length_b                          5.6698286942175
_cell_length_c                          5.6698286942175
loop_
  _symmetry_equiv_pos_as_xyz
         'x, y, z' 
_symmetry_int_tables_number             1
_symmetry_space_group_name_H-M          'P 1'