
##########################################################################
#               Crystallographic Information Format file
#               Produced by PyCifRW module
#
#  This is a CIF file.  CIF has been adopted by the International
#  Union of Crystallography as the standard for data archiving and
#  transmission.
#
#  For information on this file format, follow the CIF links at
#  http://www.iucr.org
##########################################################################

data_0

loop_
  _atom_site_label
  _atom_site_fract_x
  _atom_site_fract_y
  _atom_site_fract_z
  _atom_site_type_symbol
         Mg1       0.0       0.0       0.0       Mg        
         B1        0.33333333332076615           0.6666666666415323  0.4999999999999857 B        
         B2        0.6666666666792262  0.33333333335845255           0.4999999999999857 B
_cell_angle_alpha                       90.0
_cell_angle_beta                        90.0
_cell_angle_gamma                       119.99999999907921
_cell_length_a                          3.0642754440062
_cell_length_b                          3.0642754440914954
_cell_length_c                          3.4935180501301
loop_
  _symmetry_equiv_pos_as_xyz
         'x, y, z' 
_symmetry_int_tables_number             1
_symmetry_space_group_name_H-M          'P 1'