
##########################################################################
#               Crystallographic Information Format file
#               Produced by PyCifRW module
#
#  This is a CIF file.  CIF has been adopted by the International
#  Union of Crystallography as the standard for data archiving and
#  transmission.
#
#  For information on this file format, follow the CIF links at
#  http://www.iucr.org
##########################################################################

data_0

loop_
  _atom_site_label
  _atom_site_fract_x
  _atom_site_fract_y
  _atom_site_fract_z
  _atom_site_type_symbol
         Nb1       0.25      0.0       0.5       Nb        
         Nb2       0.75      0.0       0.5       Nb        
         Nb3       0.5       0.25      0.0       Nb        
         Nb4       0.5       0.75      0.0       Nb        
         Nb5       0.0       0.5       0.75      Nb        
         Nb6       0.0       0.5       0.25      Nb        
         Sn1       0.5       0.5       0.5       Sn        
         Sn2       0.0       0.0       0.0       Sn 
_cell_angle_alpha                       90.0
_cell_angle_beta                        90.0
_cell_angle_gamma                       90.0
_cell_length_a                          5.2577378134188
_cell_length_b                          5.2577378134188
_cell_length_c                          5.2577378134188
loop_
  _symmetry_equiv_pos_as_xyz
         'x, y, z' 
_symmetry_int_tables_number             1
_symmetry_space_group_name_H-M          'P 1'