
##########################################################################
#               Crystallographic Information Format file
#               Produced by PyCifRW module
#
#  This is a CIF file.  CIF has been adopted by the International
#  Union of Crystallography as the standard for data archiving and
#  transmission.
#
#  For information on this file format, follow the CIF links at
#  http://www.iucr.org
##########################################################################

data_0

loop_
  _atom_site_label
  _atom_site_fract_x
  _atom_site_fract_y
  _atom_site_fract_z
  _atom_site_type_symbol
         Ta1       0.0       0.0       0.2499999999960209  Ta        
         Ta2       0.0       0.0       0.749999999996037   Ta        
         Se1       0.3333333333318227  0.6666666666441146  0.38335906200380854           Se       
         Se2       0.3333333333318227  0.6666666666441146  0.1166409379962075  Se       
         Se3       0.6666666666974752  0.3333333333558889  0.8833590620038644  Se       
         Se4       0.6666666666974752  0.3333333333558889  0.6166409379962235  Se
_cell_angle_alpha                       90.0
_cell_angle_beta                        90.0
_cell_angle_gamma                       120.0000000003692
_cell_length_a                          3.4134212459802
_cell_length_b                          3.413421246042106
_cell_length_c                          12.527874266241
loop_
  _symmetry_equiv_pos_as_xyz
         'x, y, z' 
_symmetry_int_tables_number             1
_symmetry_space_group_name_H-M          'P 1'