
##########################################################################
#               Crystallographic Information Format file
#               Produced by PyCifRW module
#
#  This is a CIF file.  CIF has been adopted by the International
#  Union of Crystallography as the standard for data archiving and
#  transmission.
#
#  For information on this file format, follow the CIF links at
#  http://www.iucr.org
##########################################################################

data_0

loop_
  _atom_site_label
  _atom_site_fract_x
  _atom_site_fract_y
  _atom_site_fract_z
  _atom_site_type_symbol
         Ti1       0.0       0.0       0.5000000000093044  Ti        
         Ti2       1.2446601325452118e-26        8.297734217047494e-27         0.0      Ti       
         Al1       0.3333333333345104  0.666666666684186   0.2500000000046615  Al       
         Al2       0.6666666666427432  0.333333333315815   0.7499999999953386  Al       
         Pt1       0.3333333333345104  0.666666666684186   0.7499999999953386  Pt       
         Pt2       0.6666666666427432  0.333333333315815   0.2500000000046615  Pt
_cell_angle_alpha                       90.0
_cell_angle_beta                        90.0
_cell_angle_gamma                       119.99999999966057
_cell_length_a                          4.3963017414878
_cell_length_b                          4.39630174143292
_cell_length_c                          5.3737917583094
loop_
  _symmetry_equiv_pos_as_xyz
         'x, y, z' 
_symmetry_int_tables_number             1
_symmetry_space_group_name_H-M          'P 1'