
##########################################################################
#               Crystallographic Information Format file
#               Produced by PyCifRW module
#
#  This is a CIF file.  CIF has been adopted by the International
#  Union of Crystallography as the standard for data archiving and
#  transmission.
#
#  For information on this file format, follow the CIF links at
#  http://www.iucr.org
##########################################################################

data_0

loop_
  _atom_site_label
  _atom_site_fract_x
  _atom_site_fract_y
  _atom_site_fract_z
  _atom_site_type_symbol
         Y1        0.0       0.0       0.0       Y         
         Sn1       0.5       0.5       0.5       Sn        
         Pd1       0.7500000000074836  0.7500000000074836  0.7500000000074835  Pd       
         Pd2       0.25000000000748335           0.25000000000748346           0.25000000000748357          Pd
_cell_angle_alpha                       59.99999999999999
_cell_angle_beta                        59.99999999999999
_cell_angle_gamma                       59.99999999999999
_cell_length_a                          4.729148556420489
_cell_length_b                          4.729148556420489
_cell_length_c                          4.729148556420489
loop_
  _symmetry_equiv_pos_as_xyz
         'x, y, z' 
_symmetry_int_tables_number             1
_symmetry_space_group_name_H-M          'P 1'